/*---------------------------------------------------------------------------*\
| =========                 |                                                 |
| \\      /  F ield         | OpenFOAM: The Open Source CFD Toolbox           |
|  \\    /   O peration     | Version:  v1906                                 |
|   \\  /    A nd           | Web:      www.OpenFOAM.com                      |
|    \\/     M anipulation  |                                                 |
\*---------------------------------------------------------------------------*/
Build  : v1906 OPENFOAM=1906
Arch   : "LSB;label=32;scalar=64"
Exec   : surfaceFeatureExtract
Date   : Dec 02 2019
Time   : 13:52:01
Host   : name134p24.engin.umich.edu
PID    : 32057
I/O    : uncollated
Case   : /home/kjmaki/na423-2019/lab-stampede2/flange
nProcs : 1
trapFpe: Floating point exception trapping enabled (FOAM_SIGFPE).
fileModificationChecking : Monitoring run-time modified files using timeStampMaster (fileModificationSkew 10)
allowSystemOperations : Allowing user-supplied system call operations

// * * * * * * * * * * * * * * * * * * * * * * * * * * * * * * * * * * * * * //
Create time


Note: Feature line extraction only valid on closed manifold surfaces

Reading surfaceFeatureExtractDict

Surfaces     : flange.stl
Output       : flange
Load options : offset
Write options: writeObj=yes writeVTK=off

Statistics:
Triangles    : 6468 in 4 region(s)
Vertices     : 3228
Bounding Box : (-0.0260093 -0.0275 -0.02375) (0.0260093 0.0225 0.00225014)

Constructing feature set from included angle 150
Selecting edges based purely on geometric tests: no

Initial Feature set:
    points : 18
    edges  : 776
    of which
        region edges   : 376
        external edges : 278
        internal edges : 122

Final Feature set:
    points : 767
    of which
        convex             : 4
        concave            : 4
        mixed              : 10
        non-feature        : 749
    edges  : 776
    of which
        external edges     : 488
        internal edges     : 198
        flat edges         : 90
        open edges         : 0
        multiply connected : 0

Writing extendedFeatureEdgeMesh to "/home/kjmaki/na423-2019/lab-stampede2/flange/constant/extendedFeatureEdgeMesh/flange.extendedFeatureEdgeMesh"

Writing extendedEdgeMesh components to "/home/kjmaki/na423-2019/lab-stampede2/flange/constant/extendedFeatureEdgeMesh/flange"
Writing 4 convex feature points to "/home/kjmaki/na423-2019/lab-stampede2/flange/constant/extendedFeatureEdgeMesh/flange_convexFeaturePts.obj"
Writing 4 concave feature points to "/home/kjmaki/na423-2019/lab-stampede2/flange/constant/extendedFeatureEdgeMesh/flange_concaveFeaturePts.obj"
Writing 10 mixed feature points to "/home/kjmaki/na423-2019/lab-stampede2/flange/constant/extendedFeatureEdgeMesh/flange_mixedFeaturePts.obj"
Writing 10 mixed feature point structure to "/home/kjmaki/na423-2019/lab-stampede2/flange/constant/extendedFeatureEdgeMesh/flange_mixedFeaturePtsStructure.obj"
Writing 488 external edges to "/home/kjmaki/na423-2019/lab-stampede2/flange/constant/extendedFeatureEdgeMesh/flange_externalEdges.obj"
Writing 198 internal edges to "/home/kjmaki/na423-2019/lab-stampede2/flange/constant/extendedFeatureEdgeMesh/flange_internalEdges.obj"
Writing 90 flat edges to "/home/kjmaki/na423-2019/lab-stampede2/flange/constant/extendedFeatureEdgeMesh/flange_flatEdges.obj"
Writing 0 open edges to "/home/kjmaki/na423-2019/lab-stampede2/flange/constant/extendedFeatureEdgeMesh/flange_openEdges.obj"
Writing 0 multiple edges to "/home/kjmaki/na423-2019/lab-stampede2/flange/constant/extendedFeatureEdgeMesh/flange_multipleEdges.obj"
Writing 376 region edges to "/home/kjmaki/na423-2019/lab-stampede2/flange/constant/extendedFeatureEdgeMesh/flange_regionEdges.obj"
Writing 776 edge directions to "/home/kjmaki/na423-2019/lab-stampede2/flange/constant/extendedFeatureEdgeMesh/flange_edgeDirections.obj"

Writing featureEdgeMesh to "/home/kjmaki/na423-2019/lab-stampede2/flange/constant/triSurface/flange.eMesh"
ExecutionTime = 0.04 s  ClockTime = 0 s

End

